Script started on 2023-09-30 14:40:00+05:30 [TERM="xterm-256color" TTY="/dev/pts/0" COLUMNS="204" LINES="55"]
WARNING: physical memory size is smaller than virtual memory size.
WARNING: option --warmup_instructions is deprecated. Use --warmup-instructions instead.
WARNING: option --simulation_instructions is deprecated. Use --simulation-instructions instead.

*** ChampSim Multicore Out-of-Order Simulator ***
Warmup Instructions: 20000000
Simulation Instructions: 50000000
Number of CPUs: 1
Page size: 4096

Ratio: 2.35134
Component sizes: 10 24 56 132 
Off-chip DRAM Size: 4 GiB Channels: 1 Width: 64-bit Data Race: 3200 MT/s
^C
Script done on 2023-09-30 14:40:12+05:30 [COMMAND_EXIT_CODE="130"]
