Script started on 2023-09-30 14:38:15+05:30 [TERM="xterm-256color" TTY="/dev/pts/0" COLUMNS="204" LINES="55"]
WARNING: physical memory size is smaller than virtual memory size.
WARNING: option --warmup_instructions is deprecated. Use --warmup-instructions instead.
WARNING: option --simulation_instructions is deprecated. Use --simulation-instructions instead.

*** ChampSim Multicore Out-of-Order Simulator ***
Warmup Instructions: 20000000
Simulation Instructions: 50000000
Number of CPUs: 1
Page size: 4096

Ratio: 2.9625
Component sizes: 5 15 44 130 
Off-chip DRAM Size: 4 GiB Channels: 1 Width: 64-bit Data Race: 3200 MT/s
Heartbeat CPU 0 instructions: 10000000 cycles: 2605371 heartbeat IPC: 3.838 cumulative IPC: 3.838 (Simulation time: 00 hr 00 min 16 sec)
Heartbeat CPU 0 instructions: 20000000 cycles: 5105371 heartbeat IPC: 4 cumulative IPC: 3.917 (Simulation time: 00 hr 00 min 31 sec)
Warmup finished CPU 0 instructions: 20000000 cycles: 5105372 cumulative IPC: 3.917 (Simulation time: 00 hr 00 min 31 sec)
Warmup complete CPU 0 instructions: 20000000 cycles: 5105372 cumulative IPC: 3.917 (Simulation time: 00 hr 00 min 31 sec)
Heartbeat CPU 0 instructions: 30000002 cycles: 10491705 heartbeat IPC: 1.857 cumulative IPC: 1.857 (Simulation time: 00 hr 01 min 01 sec)
^C
Script done on 2023-09-30 14:39:34+05:30 [COMMAND_EXIT_CODE="130"]
